250
# Bcc Fe oriented X=[100], Y=[010], Z=[001].
Fe  0.00000000  0.00000000  0.00000000
Fe  1.40000000  1.40000000  1.40000000
Fe  2.80000000  0.00000000  0.00000000
Fe  4.20000000  1.40000000  1.40000000
Fe  5.60000000  0.00000000  0.00000000
Fe  7.00000000  1.40000000  1.40000000
Fe  8.40000000  0.00000000  0.00000000
Fe  9.80000000  1.40000000  1.40000000
Fe  11.20000000  0.00000000  0.00000000
Fe  12.60000000  1.40000000  1.40000000
Fe  0.00000000  2.80000000  0.00000000
Fe  1.40000000  4.20000000  1.40000000
Fe  2.80000000  2.80000000  0.00000000
Fe  4.20000000  4.20000000  1.40000000
Fe  5.60000000  2.80000000  0.00000000
Fe  7.00000000  4.20000000  1.40000000
Fe  8.40000000  2.80000000  0.00000000
Fe  9.80000000  4.20000000  1.40000000
Fe  11.20000000  2.80000000  0.00000000
Fe  12.60000000  4.20000000  1.40000000
Fe  0.00000000  5.60000000  0.00000000
Fe  1.40000000  7.00000000  1.40000000
Fe  2.80000000  5.60000000  0.00000000
Fe  4.20000000  7.00000000  1.40000000
Fe  5.60000000  5.60000000  0.00000000
Fe  7.00000000  7.00000000  1.40000000
Fe  8.40000000  5.60000000  0.00000000
Fe  9.80000000  7.00000000  1.40000000
Fe  11.20000000  5.60000000  0.00000000
Fe  12.60000000  7.00000000  1.40000000
Fe  0.00000000  8.40000000  0.00000000
Fe  1.40000000  9.80000000  1.40000000
Fe  2.80000000  8.40000000  0.00000000
Fe  4.20000000  9.80000000  1.40000000
Fe  5.60000000  8.40000000  0.00000000
Fe  7.00000000  9.80000000  1.40000000
Fe  8.40000000  8.40000000  0.00000000
Fe  9.80000000  9.80000000  1.40000000
Fe  11.20000000  8.40000000  0.00000000
Fe  12.60000000  9.80000000  1.40000000
Fe  0.00000000  11.20000000  0.00000000
Fe  1.40000000  12.60000000  1.40000000
Fe  2.80000000  11.20000000  0.00000000
Fe  4.20000000  12.60000000  1.40000000
Fe  5.60000000  11.20000000  0.00000000
Fe  7.00000000  12.60000000  1.40000000
Fe  8.40000000  11.20000000  0.00000000
Fe  9.80000000  12.60000000  1.40000000
Fe  11.20000000  11.20000000  0.00000000
Fe  12.60000000  12.60000000  1.40000000
Fe  0.00000000  0.00000000  2.80000000
Fe  1.40000000  1.40000000  4.20000000
Fe  2.80000000  0.00000000  2.80000000
Fe  4.20000000  1.40000000  4.20000000
Fe  5.60000000  0.00000000  2.80000000
Fe  7.00000000  1.40000000  4.20000000
Fe  8.40000000  0.00000000  2.80000000
Fe  9.80000000  1.40000000  4.20000000
Fe  11.20000000  0.00000000  2.80000000
Fe  12.60000000  1.40000000  4.20000000
Fe  0.00000000  2.80000000  2.80000000
Fe  1.40000000  4.20000000  4.20000000
Fe  2.80000000  2.80000000  2.80000000
Fe  4.20000000  4.20000000  4.20000000
Fe  5.60000000  2.80000000  2.80000000
Fe  7.00000000  4.20000000  4.20000000
Fe  8.40000000  2.80000000  2.80000000
Fe  9.80000000  4.20000000  4.20000000
Fe  11.20000000  2.80000000  2.80000000
Fe  12.60000000  4.20000000  4.20000000
Fe  0.00000000  5.60000000  2.80000000
Fe  1.40000000  7.00000000  4.20000000
Fe  2.80000000  5.60000000  2.80000000
Fe  4.20000000  7.00000000  4.20000000
Fe  5.60000000  5.60000000  2.80000000
Fe  7.00000000  7.00000000  4.20000000
Fe  8.40000000  5.60000000  2.80000000
Fe  9.80000000  7.00000000  4.20000000
Fe  11.20000000  5.60000000  2.80000000
Fe  12.60000000  7.00000000  4.20000000
Fe  0.00000000  8.40000000  2.80000000
Fe  1.40000000  9.80000000  4.20000000
Fe  2.80000000  8.40000000  2.80000000
Fe  4.20000000  9.80000000  4.20000000
Fe  5.60000000  8.40000000  2.80000000
Fe  7.00000000  9.80000000  4.20000000
Fe  8.40000000  8.40000000  2.80000000
Fe  9.80000000  9.80000000  4.20000000
Fe  11.20000000  8.40000000  2.80000000
Fe  12.60000000  9.80000000  4.20000000
Fe  0.00000000  11.20000000  2.80000000
Fe  1.40000000  12.60000000  4.20000000
Fe  2.80000000  11.20000000  2.80000000
Fe  4.20000000  12.60000000  4.20000000
Fe  5.60000000  11.20000000  2.80000000
Fe  7.00000000  12.60000000  4.20000000
Fe  8.40000000  11.20000000  2.80000000
Fe  9.80000000  12.60000000  4.20000000
Fe  11.20000000  11.20000000  2.80000000
Fe  12.60000000  12.60000000  4.20000000
Fe  0.00000000  0.00000000  5.60000000
Fe  1.40000000  1.40000000  7.00000000
Fe  2.80000000  0.00000000  5.60000000
Fe  4.20000000  1.40000000  7.00000000
Fe  5.60000000  0.00000000  5.60000000
Fe  7.00000000  1.40000000  7.00000000
Fe  8.40000000  0.00000000  5.60000000
Fe  9.80000000  1.40000000  7.00000000
Fe  11.20000000  0.00000000  5.60000000
Fe  12.60000000  1.40000000  7.00000000
Fe  0.00000000  2.80000000  5.60000000
Fe  1.40000000  4.20000000  7.00000000
Fe  2.80000000  2.80000000  5.60000000
Fe  4.20000000  4.20000000  7.00000000
Fe  5.60000000  2.80000000  5.60000000
Fe  7.00000000  4.20000000  7.00000000
Fe  8.40000000  2.80000000  5.60000000
Fe  9.80000000  4.20000000  7.00000000
Fe  11.20000000  2.80000000  5.60000000
Fe  12.60000000  4.20000000  7.00000000
Fe  0.00000000  5.60000000  5.60000000
Fe  1.40000000  7.00000000  7.00000000
Fe  2.80000000  5.60000000  5.60000000
Fe  4.20000000  7.00000000  7.00000000
Fe  5.60000000  5.60000000  5.60000000
Fe  7.00000000  7.00000000  7.00000000
Fe  8.40000000  5.60000000  5.60000000
Fe  9.80000000  7.00000000  7.00000000
Fe  11.20000000  5.60000000  5.60000000
Fe  12.60000000  7.00000000  7.00000000
Fe  0.00000000  8.40000000  5.60000000
Fe  1.40000000  9.80000000  7.00000000
Fe  2.80000000  8.40000000  5.60000000
Fe  4.20000000  9.80000000  7.00000000
Fe  5.60000000  8.40000000  5.60000000
Fe  7.00000000  9.80000000  7.00000000
Fe  8.40000000  8.40000000  5.60000000
Fe  9.80000000  9.80000000  7.00000000
Fe  11.20000000  8.40000000  5.60000000
Fe  12.60000000  9.80000000  7.00000000
Fe  0.00000000  11.20000000  5.60000000
Fe  1.40000000  12.60000000  7.00000000
Fe  2.80000000  11.20000000  5.60000000
Fe  4.20000000  12.60000000  7.00000000
Fe  5.60000000  11.20000000  5.60000000
Fe  7.00000000  12.60000000  7.00000000
Fe  8.40000000  11.20000000  5.60000000
Fe  9.80000000  12.60000000  7.00000000
Fe  11.20000000  11.20000000  5.60000000
Fe  12.60000000  12.60000000  7.00000000
Fe  0.00000000  0.00000000  8.40000000
Fe  1.40000000  1.40000000  9.80000000
Fe  2.80000000  0.00000000  8.40000000
Fe  4.20000000  1.40000000  9.80000000
Fe  5.60000000  0.00000000  8.40000000
Fe  7.00000000  1.40000000  9.80000000
Fe  8.40000000  0.00000000  8.40000000
Fe  9.80000000  1.40000000  9.80000000
Fe  11.20000000  0.00000000  8.40000000
Fe  12.60000000  1.40000000  9.80000000
Fe  0.00000000  2.80000000  8.40000000
Fe  1.40000000  4.20000000  9.80000000
Fe  2.80000000  2.80000000  8.40000000
Fe  4.20000000  4.20000000  9.80000000
Fe  5.60000000  2.80000000  8.40000000
Fe  7.00000000  4.20000000  9.80000000
Fe  8.40000000  2.80000000  8.40000000
Fe  9.80000000  4.20000000  9.80000000
Fe  11.20000000  2.80000000  8.40000000
Fe  12.60000000  4.20000000  9.80000000
Fe  0.00000000  5.60000000  8.40000000
Fe  1.40000000  7.00000000  9.80000000
Fe  2.80000000  5.60000000  8.40000000
Fe  4.20000000  7.00000000  9.80000000
Fe  5.60000000  5.60000000  8.40000000
Fe  7.00000000  7.00000000  9.80000000
Fe  8.40000000  5.60000000  8.40000000
Fe  9.80000000  7.00000000  9.80000000
Fe  11.20000000  5.60000000  8.40000000
Fe  12.60000000  7.00000000  9.80000000
Fe  0.00000000  8.40000000  8.40000000
Fe  1.40000000  9.80000000  9.80000000
Fe  2.80000000  8.40000000  8.40000000
Fe  4.20000000  9.80000000  9.80000000
Fe  5.60000000  8.40000000  8.40000000
Fe  7.00000000  9.80000000  9.80000000
Fe  8.40000000  8.40000000  8.40000000
Fe  9.80000000  9.80000000  9.80000000
Fe  11.20000000  8.40000000  8.40000000
Fe  12.60000000  9.80000000  9.80000000
Fe  0.00000000  11.20000000  8.40000000
Fe  1.40000000  12.60000000  9.80000000
Fe  2.80000000  11.20000000  8.40000000
Fe  4.20000000  12.60000000  9.80000000
Fe  5.60000000  11.20000000  8.40000000
Fe  7.00000000  12.60000000  9.80000000
Fe  8.40000000  11.20000000  8.40000000
Fe  9.80000000  12.60000000  9.80000000
Fe  11.20000000  11.20000000  8.40000000
Fe  12.60000000  12.60000000  9.80000000
Fe  0.00000000  0.00000000  11.20000000
Fe  1.40000000  1.40000000  12.60000000
Fe  2.80000000  0.00000000  11.20000000
Fe  4.20000000  1.40000000  12.60000000
Fe  5.60000000  0.00000000  11.20000000
Fe  7.00000000  1.40000000  12.60000000
Fe  8.40000000  0.00000000  11.20000000
Fe  9.80000000  1.40000000  12.60000000
Fe  11.20000000  0.00000000  11.20000000
Fe  12.60000000  1.40000000  12.60000000
Fe  0.00000000  2.80000000  11.20000000
Fe  1.40000000  4.20000000  12.60000000
Fe  2.80000000  2.80000000  11.20000000
Fe  4.20000000  4.20000000  12.60000000
Fe  5.60000000  2.80000000  11.20000000
Fe  7.00000000  4.20000000  12.60000000
Fe  8.40000000  2.80000000  11.20000000
Fe  9.80000000  4.20000000  12.60000000
Fe  11.20000000  2.80000000  11.20000000
Fe  12.60000000  4.20000000  12.60000000
Fe  0.00000000  5.60000000  11.20000000
Fe  1.40000000  7.00000000  12.60000000
Fe  2.80000000  5.60000000  11.20000000
Fe  4.20000000  7.00000000  12.60000000
Fe  5.60000000  5.60000000  11.20000000
Fe  7.00000000  7.00000000  12.60000000
Fe  8.40000000  5.60000000  11.20000000
Fe  9.80000000  7.00000000  12.60000000
Fe  11.20000000  5.60000000  11.20000000
Fe  12.60000000  7.00000000  12.60000000
Fe  0.00000000  8.40000000  11.20000000
Fe  1.40000000  9.80000000  12.60000000
Fe  2.80000000  8.40000000  11.20000000
Fe  4.20000000  9.80000000  12.60000000
Fe  5.60000000  8.40000000  11.20000000
Fe  7.00000000  9.80000000  12.60000000
Fe  8.40000000  8.40000000  11.20000000
Fe  9.80000000  9.80000000  12.60000000
Fe  11.20000000  8.40000000  11.20000000
Fe  12.60000000  9.80000000  12.60000000
Fe  0.00000000  11.20000000  11.20000000
Fe  1.40000000  12.60000000  12.60000000
Fe  2.80000000  11.20000000  11.20000000
Fe  4.20000000  12.60000000  12.60000000
Fe  5.60000000  11.20000000  11.20000000
Fe  7.00000000  12.60000000  12.60000000
Fe  8.40000000  11.20000000  11.20000000
Fe  9.80000000  12.60000000  12.60000000
Fe  11.20000000  11.20000000  11.20000000
Fe  12.60000000  12.60000000  12.60000000
