500
# Fcc Cu oriented X=[100], Y=[010], Z=[001].
Cu  0.00000000  0.00000000  0.00000000
Cu  1.80000000  1.80000000  0.00000000
Cu  0.00000000  1.80000000  1.80000000
Cu  1.80000000  0.00000000  1.80000000
Cu  3.60000000  0.00000000  0.00000000
Cu  5.40000000  1.80000000  0.00000000
Cu  3.60000000  1.80000000  1.80000000
Cu  5.40000000  0.00000000  1.80000000
Cu  7.20000000  0.00000000  0.00000000
Cu  9.00000000  1.80000000  0.00000000
Cu  7.20000000  1.80000000  1.80000000
Cu  9.00000000  0.00000000  1.80000000
Cu  10.80000000  0.00000000  0.00000000
Cu  12.60000000  1.80000000  0.00000000
Cu  10.80000000  1.80000000  1.80000000
Cu  12.60000000  0.00000000  1.80000000
Cu  14.40000000  0.00000000  0.00000000
Cu  16.20000000  1.80000000  0.00000000
Cu  14.40000000  1.80000000  1.80000000
Cu  16.20000000  0.00000000  1.80000000
Cu  0.00000000  3.60000000  0.00000000
Cu  1.80000000  5.40000000  0.00000000
Cu  0.00000000  5.40000000  1.80000000
Cu  1.80000000  3.60000000  1.80000000
Cu  3.60000000  3.60000000  0.00000000
Cu  5.40000000  5.40000000  0.00000000
Cu  3.60000000  5.40000000  1.80000000
Cu  5.40000000  3.60000000  1.80000000
Cu  7.20000000  3.60000000  0.00000000
Cu  9.00000000  5.40000000  0.00000000
Cu  7.20000000  5.40000000  1.80000000
Cu  9.00000000  3.60000000  1.80000000
Cu  10.80000000  3.60000000  0.00000000
Cu  12.60000000  5.40000000  0.00000000
Cu  10.80000000  5.40000000  1.80000000
Cu  12.60000000  3.60000000  1.80000000
Cu  14.40000000  3.60000000  0.00000000
Cu  16.20000000  5.40000000  0.00000000
Cu  14.40000000  5.40000000  1.80000000
Cu  16.20000000  3.60000000  1.80000000
Cu  0.00000000  7.20000000  0.00000000
Cu  1.80000000  9.00000000  0.00000000
Cu  0.00000000  9.00000000  1.80000000
Cu  1.80000000  7.20000000  1.80000000
Cu  3.60000000  7.20000000  0.00000000
Cu  5.40000000  9.00000000  0.00000000
Cu  3.60000000  9.00000000  1.80000000
Cu  5.40000000  7.20000000  1.80000000
Cu  7.20000000  7.20000000  0.00000000
Cu  9.00000000  9.00000000  0.00000000
Cu  7.20000000  9.00000000  1.80000000
Cu  9.00000000  7.20000000  1.80000000
Cu  10.80000000  7.20000000  0.00000000
Cu  12.60000000  9.00000000  0.00000000
Cu  10.80000000  9.00000000  1.80000000
Cu  12.60000000  7.20000000  1.80000000
Cu  14.40000000  7.20000000  0.00000000
Cu  16.20000000  9.00000000  0.00000000
Cu  14.40000000  9.00000000  1.80000000
Cu  16.20000000  7.20000000  1.80000000
Cu  0.00000000  10.80000000  0.00000000
Cu  1.80000000  12.60000000  0.00000000
Cu  0.00000000  12.60000000  1.80000000
Cu  1.80000000  10.80000000  1.80000000
Cu  3.60000000  10.80000000  0.00000000
Cu  5.40000000  12.60000000  0.00000000
Cu  3.60000000  12.60000000  1.80000000
Cu  5.40000000  10.80000000  1.80000000
Cu  7.20000000  10.80000000  0.00000000
Cu  9.00000000  12.60000000  0.00000000
Cu  7.20000000  12.60000000  1.80000000
Cu  9.00000000  10.80000000  1.80000000
Cu  10.80000000  10.80000000  0.00000000
Cu  12.60000000  12.60000000  0.00000000
Cu  10.80000000  12.60000000  1.80000000
Cu  12.60000000  10.80000000  1.80000000
Cu  14.40000000  10.80000000  0.00000000
Cu  16.20000000  12.60000000  0.00000000
Cu  14.40000000  12.60000000  1.80000000
Cu  16.20000000  10.80000000  1.80000000
Cu  0.00000000  14.40000000  0.00000000
Cu  1.80000000  16.20000000  0.00000000
Cu  0.00000000  16.20000000  1.80000000
Cu  1.80000000  14.40000000  1.80000000
Cu  3.60000000  14.40000000  0.00000000
Cu  5.40000000  16.20000000  0.00000000
Cu  3.60000000  16.20000000  1.80000000
Cu  5.40000000  14.40000000  1.80000000
Cu  7.20000000  14.40000000  0.00000000
Cu  9.00000000  16.20000000  0.00000000
Cu  7.20000000  16.20000000  1.80000000
Cu  9.00000000  14.40000000  1.80000000
Cu  10.80000000  14.40000000  0.00000000
Cu  12.60000000  16.20000000  0.00000000
Cu  10.80000000  16.20000000  1.80000000
Cu  12.60000000  14.40000000  1.80000000
Cu  14.40000000  14.40000000  0.00000000
Cu  16.20000000  16.20000000  0.00000000
Cu  14.40000000  16.20000000  1.80000000
Cu  16.20000000  14.40000000  1.80000000
Cu  0.00000000  0.00000000  3.60000000
Cu  1.80000000  1.80000000  3.60000000
Cu  0.00000000  1.80000000  5.40000000
Cu  1.80000000  0.00000000  5.40000000
Cu  3.60000000  0.00000000  3.60000000
Cu  5.40000000  1.80000000  3.60000000
Cu  3.60000000  1.80000000  5.40000000
Cu  5.40000000  0.00000000  5.40000000
Cu  7.20000000  0.00000000  3.60000000
Cu  9.00000000  1.80000000  3.60000000
Cu  7.20000000  1.80000000  5.40000000
Cu  9.00000000  0.00000000  5.40000000
Cu  10.80000000  0.00000000  3.60000000
Cu  12.60000000  1.80000000  3.60000000
Cu  10.80000000  1.80000000  5.40000000
Cu  12.60000000  0.00000000  5.40000000
Cu  14.40000000  0.00000000  3.60000000
Cu  16.20000000  1.80000000  3.60000000
Cu  14.40000000  1.80000000  5.40000000
Cu  16.20000000  0.00000000  5.40000000
Cu  0.00000000  3.60000000  3.60000000
Cu  1.80000000  5.40000000  3.60000000
Cu  0.00000000  5.40000000  5.40000000
Cu  1.80000000  3.60000000  5.40000000
Cu  3.60000000  3.60000000  3.60000000
Cu  5.40000000  5.40000000  3.60000000
Cu  3.60000000  5.40000000  5.40000000
Cu  5.40000000  3.60000000  5.40000000
Cu  7.20000000  3.60000000  3.60000000
Cu  9.00000000  5.40000000  3.60000000
Cu  7.20000000  5.40000000  5.40000000
Cu  9.00000000  3.60000000  5.40000000
Cu  10.80000000  3.60000000  3.60000000
Cu  12.60000000  5.40000000  3.60000000
Cu  10.80000000  5.40000000  5.40000000
Cu  12.60000000  3.60000000  5.40000000
Cu  14.40000000  3.60000000  3.60000000
Cu  16.20000000  5.40000000  3.60000000
Cu  14.40000000  5.40000000  5.40000000
Cu  16.20000000  3.60000000  5.40000000
Cu  0.00000000  7.20000000  3.60000000
Cu  1.80000000  9.00000000  3.60000000
Cu  0.00000000  9.00000000  5.40000000
Cu  1.80000000  7.20000000  5.40000000
Cu  3.60000000  7.20000000  3.60000000
Cu  5.40000000  9.00000000  3.60000000
Cu  3.60000000  9.00000000  5.40000000
Cu  5.40000000  7.20000000  5.40000000
Cu  7.20000000  7.20000000  3.60000000
Cu  9.00000000  9.00000000  3.60000000
Cu  7.20000000  9.00000000  5.40000000
Cu  9.00000000  7.20000000  5.40000000
Cu  10.80000000  7.20000000  3.60000000
Cu  12.60000000  9.00000000  3.60000000
Cu  10.80000000  9.00000000  5.40000000
Cu  12.60000000  7.20000000  5.40000000
Cu  14.40000000  7.20000000  3.60000000
Cu  16.20000000  9.00000000  3.60000000
Cu  14.40000000  9.00000000  5.40000000
Cu  16.20000000  7.20000000  5.40000000
Cu  0.00000000  10.80000000  3.60000000
Cu  1.80000000  12.60000000  3.60000000
Cu  0.00000000  12.60000000  5.40000000
Cu  1.80000000  10.80000000  5.40000000
Cu  3.60000000  10.80000000  3.60000000
Cu  5.40000000  12.60000000  3.60000000
Cu  3.60000000  12.60000000  5.40000000
Cu  5.40000000  10.80000000  5.40000000
Cu  7.20000000  10.80000000  3.60000000
Cu  9.00000000  12.60000000  3.60000000
Cu  7.20000000  12.60000000  5.40000000
Cu  9.00000000  10.80000000  5.40000000
Cu  10.80000000  10.80000000  3.60000000
Cu  12.60000000  12.60000000  3.60000000
Cu  10.80000000  12.60000000  5.40000000
Cu  12.60000000  10.80000000  5.40000000
Cu  14.40000000  10.80000000  3.60000000
Cu  16.20000000  12.60000000  3.60000000
Cu  14.40000000  12.60000000  5.40000000
Cu  16.20000000  10.80000000  5.40000000
Cu  0.00000000  14.40000000  3.60000000
Cu  1.80000000  16.20000000  3.60000000
Cu  0.00000000  16.20000000  5.40000000
Cu  1.80000000  14.40000000  5.40000000
Cu  3.60000000  14.40000000  3.60000000
Cu  5.40000000  16.20000000  3.60000000
Cu  3.60000000  16.20000000  5.40000000
Cu  5.40000000  14.40000000  5.40000000
Cu  7.20000000  14.40000000  3.60000000
Cu  9.00000000  16.20000000  3.60000000
Cu  7.20000000  16.20000000  5.40000000
Cu  9.00000000  14.40000000  5.40000000
Cu  10.80000000  14.40000000  3.60000000
Cu  12.60000000  16.20000000  3.60000000
Cu  10.80000000  16.20000000  5.40000000
Cu  12.60000000  14.40000000  5.40000000
Cu  14.40000000  14.40000000  3.60000000
Cu  16.20000000  16.20000000  3.60000000
Cu  14.40000000  16.20000000  5.40000000
Cu  16.20000000  14.40000000  5.40000000
Cu  0.00000000  0.00000000  7.20000000
Cu  1.80000000  1.80000000  7.20000000
Cu  0.00000000  1.80000000  9.00000000
Cu  1.80000000  0.00000000  9.00000000
Cu  3.60000000  0.00000000  7.20000000
Cu  5.40000000  1.80000000  7.20000000
Cu  3.60000000  1.80000000  9.00000000
Cu  5.40000000  0.00000000  9.00000000
Cu  7.20000000  0.00000000  7.20000000
Cu  9.00000000  1.80000000  7.20000000
Cu  7.20000000  1.80000000  9.00000000
Cu  9.00000000  0.00000000  9.00000000
Cu  10.80000000  0.00000000  7.20000000
Cu  12.60000000  1.80000000  7.20000000
Cu  10.80000000  1.80000000  9.00000000
Cu  12.60000000  0.00000000  9.00000000
Cu  14.40000000  0.00000000  7.20000000
Cu  16.20000000  1.80000000  7.20000000
Cu  14.40000000  1.80000000  9.00000000
Cu  16.20000000  0.00000000  9.00000000
Cu  0.00000000  3.60000000  7.20000000
Cu  1.80000000  5.40000000  7.20000000
Cu  0.00000000  5.40000000  9.00000000
Cu  1.80000000  3.60000000  9.00000000
Cu  3.60000000  3.60000000  7.20000000
Cu  5.40000000  5.40000000  7.20000000
Cu  3.60000000  5.40000000  9.00000000
Cu  5.40000000  3.60000000  9.00000000
Cu  7.20000000  3.60000000  7.20000000
Cu  9.00000000  5.40000000  7.20000000
Cu  7.20000000  5.40000000  9.00000000
Cu  9.00000000  3.60000000  9.00000000
Cu  10.80000000  3.60000000  7.20000000
Cu  12.60000000  5.40000000  7.20000000
Cu  10.80000000  5.40000000  9.00000000
Cu  12.60000000  3.60000000  9.00000000
Cu  14.40000000  3.60000000  7.20000000
Cu  16.20000000  5.40000000  7.20000000
Cu  14.40000000  5.40000000  9.00000000
Cu  16.20000000  3.60000000  9.00000000
Cu  0.00000000  7.20000000  7.20000000
Cu  1.80000000  9.00000000  7.20000000
Cu  0.00000000  9.00000000  9.00000000
Cu  1.80000000  7.20000000  9.00000000
Cu  3.60000000  7.20000000  7.20000000
Cu  5.40000000  9.00000000  7.20000000
Cu  3.60000000  9.00000000  9.00000000
Cu  5.40000000  7.20000000  9.00000000
Cu  7.20000000  7.20000000  7.20000000
Cu  9.00000000  9.00000000  7.20000000
Cu  7.20000000  9.00000000  9.00000000
Cu  9.00000000  7.20000000  9.00000000
Cu  10.80000000  7.20000000  7.20000000
Cu  12.60000000  9.00000000  7.20000000
Cu  10.80000000  9.00000000  9.00000000
Cu  12.60000000  7.20000000  9.00000000
Cu  14.40000000  7.20000000  7.20000000
Cu  16.20000000  9.00000000  7.20000000
Cu  14.40000000  9.00000000  9.00000000
Cu  16.20000000  7.20000000  9.00000000
Cu  0.00000000  10.80000000  7.20000000
Cu  1.80000000  12.60000000  7.20000000
Cu  0.00000000  12.60000000  9.00000000
Cu  1.80000000  10.80000000  9.00000000
Cu  3.60000000  10.80000000  7.20000000
Cu  5.40000000  12.60000000  7.20000000
Cu  3.60000000  12.60000000  9.00000000
Cu  5.40000000  10.80000000  9.00000000
Cu  7.20000000  10.80000000  7.20000000
Cu  9.00000000  12.60000000  7.20000000
Cu  7.20000000  12.60000000  9.00000000
Cu  9.00000000  10.80000000  9.00000000
Cu  10.80000000  10.80000000  7.20000000
Cu  12.60000000  12.60000000  7.20000000
Cu  10.80000000  12.60000000  9.00000000
Cu  12.60000000  10.80000000  9.00000000
Cu  14.40000000  10.80000000  7.20000000
Cu  16.20000000  12.60000000  7.20000000
Cu  14.40000000  12.60000000  9.00000000
Cu  16.20000000  10.80000000  9.00000000
Cu  0.00000000  14.40000000  7.20000000
Cu  1.80000000  16.20000000  7.20000000
Cu  0.00000000  16.20000000  9.00000000
Cu  1.80000000  14.40000000  9.00000000
Cu  3.60000000  14.40000000  7.20000000
Cu  5.40000000  16.20000000  7.20000000
Cu  3.60000000  16.20000000  9.00000000
Cu  5.40000000  14.40000000  9.00000000
Cu  7.20000000  14.40000000  7.20000000
Cu  9.00000000  16.20000000  7.20000000
Cu  7.20000000  16.20000000  9.00000000
Cu  9.00000000  14.40000000  9.00000000
Cu  10.80000000  14.40000000  7.20000000
Cu  12.60000000  16.20000000  7.20000000
Cu  10.80000000  16.20000000  9.00000000
Cu  12.60000000  14.40000000  9.00000000
Cu  14.40000000  14.40000000  7.20000000
Cu  16.20000000  16.20000000  7.20000000
Cu  14.40000000  16.20000000  9.00000000
Cu  16.20000000  14.40000000  9.00000000
Cu  0.00000000  0.00000000  10.80000000
Cu  1.80000000  1.80000000  10.80000000
Cu  0.00000000  1.80000000  12.60000000
Cu  1.80000000  0.00000000  12.60000000
Cu  3.60000000  0.00000000  10.80000000
Cu  5.40000000  1.80000000  10.80000000
Cu  3.60000000  1.80000000  12.60000000
Cu  5.40000000  0.00000000  12.60000000
Cu  7.20000000  0.00000000  10.80000000
Cu  9.00000000  1.80000000  10.80000000
Cu  7.20000000  1.80000000  12.60000000
Cu  9.00000000  0.00000000  12.60000000
Cu  10.80000000  0.00000000  10.80000000
Cu  12.60000000  1.80000000  10.80000000
Cu  10.80000000  1.80000000  12.60000000
Cu  12.60000000  0.00000000  12.60000000
Cu  14.40000000  0.00000000  10.80000000
Cu  16.20000000  1.80000000  10.80000000
Cu  14.40000000  1.80000000  12.60000000
Cu  16.20000000  0.00000000  12.60000000
Cu  0.00000000  3.60000000  10.80000000
Cu  1.80000000  5.40000000  10.80000000
Cu  0.00000000  5.40000000  12.60000000
Cu  1.80000000  3.60000000  12.60000000
Cu  3.60000000  3.60000000  10.80000000
Cu  5.40000000  5.40000000  10.80000000
Cu  3.60000000  5.40000000  12.60000000
Cu  5.40000000  3.60000000  12.60000000
Cu  7.20000000  3.60000000  10.80000000
Cu  9.00000000  5.40000000  10.80000000
Cu  7.20000000  5.40000000  12.60000000
Cu  9.00000000  3.60000000  12.60000000
Cu  10.80000000  3.60000000  10.80000000
Cu  12.60000000  5.40000000  10.80000000
Cu  10.80000000  5.40000000  12.60000000
Cu  12.60000000  3.60000000  12.60000000
Cu  14.40000000  3.60000000  10.80000000
Cu  16.20000000  5.40000000  10.80000000
Cu  14.40000000  5.40000000  12.60000000
Cu  16.20000000  3.60000000  12.60000000
Cu  0.00000000  7.20000000  10.80000000
Cu  1.80000000  9.00000000  10.80000000
Cu  0.00000000  9.00000000  12.60000000
Cu  1.80000000  7.20000000  12.60000000
Cu  3.60000000  7.20000000  10.80000000
Cu  5.40000000  9.00000000  10.80000000
Cu  3.60000000  9.00000000  12.60000000
Cu  5.40000000  7.20000000  12.60000000
Cu  7.20000000  7.20000000  10.80000000
Cu  9.00000000  9.00000000  10.80000000
Cu  7.20000000  9.00000000  12.60000000
Cu  9.00000000  7.20000000  12.60000000
Cu  10.80000000  7.20000000  10.80000000
Cu  12.60000000  9.00000000  10.80000000
Cu  10.80000000  9.00000000  12.60000000
Cu  12.60000000  7.20000000  12.60000000
Cu  14.40000000  7.20000000  10.80000000
Cu  16.20000000  9.00000000  10.80000000
Cu  14.40000000  9.00000000  12.60000000
Cu  16.20000000  7.20000000  12.60000000
Cu  0.00000000  10.80000000  10.80000000
Cu  1.80000000  12.60000000  10.80000000
Cu  0.00000000  12.60000000  12.60000000
Cu  1.80000000  10.80000000  12.60000000
Cu  3.60000000  10.80000000  10.80000000
Cu  5.40000000  12.60000000  10.80000000
Cu  3.60000000  12.60000000  12.60000000
Cu  5.40000000  10.80000000  12.60000000
Cu  7.20000000  10.80000000  10.80000000
Cu  9.00000000  12.60000000  10.80000000
Cu  7.20000000  12.60000000  12.60000000
Cu  9.00000000  10.80000000  12.60000000
Cu  10.80000000  10.80000000  10.80000000
Cu  12.60000000  12.60000000  10.80000000
Cu  10.80000000  12.60000000  12.60000000
Cu  12.60000000  10.80000000  12.60000000
Cu  14.40000000  10.80000000  10.80000000
Cu  16.20000000  12.60000000  10.80000000
Cu  14.40000000  12.60000000  12.60000000
Cu  16.20000000  10.80000000  12.60000000
Cu  0.00000000  14.40000000  10.80000000
Cu  1.80000000  16.20000000  10.80000000
Cu  0.00000000  16.20000000  12.60000000
Cu  1.80000000  14.40000000  12.60000000
Cu  3.60000000  14.40000000  10.80000000
Cu  5.40000000  16.20000000  10.80000000
Cu  3.60000000  16.20000000  12.60000000
Cu  5.40000000  14.40000000  12.60000000
Cu  7.20000000  14.40000000  10.80000000
Cu  9.00000000  16.20000000  10.80000000
Cu  7.20000000  16.20000000  12.60000000
Cu  9.00000000  14.40000000  12.60000000
Cu  10.80000000  14.40000000  10.80000000
Cu  12.60000000  16.20000000  10.80000000
Cu  10.80000000  16.20000000  12.60000000
Cu  12.60000000  14.40000000  12.60000000
Cu  14.40000000  14.40000000  10.80000000
Cu  16.20000000  16.20000000  10.80000000
Cu  14.40000000  16.20000000  12.60000000
Cu  16.20000000  14.40000000  12.60000000
Cu  0.00000000  0.00000000  14.40000000
Cu  1.80000000  1.80000000  14.40000000
Cu  0.00000000  1.80000000  16.20000000
Cu  1.80000000  0.00000000  16.20000000
Cu  3.60000000  0.00000000  14.40000000
Cu  5.40000000  1.80000000  14.40000000
Cu  3.60000000  1.80000000  16.20000000
Cu  5.40000000  0.00000000  16.20000000
Cu  7.20000000  0.00000000  14.40000000
Cu  9.00000000  1.80000000  14.40000000
Cu  7.20000000  1.80000000  16.20000000
Cu  9.00000000  0.00000000  16.20000000
Cu  10.80000000  0.00000000  14.40000000
Cu  12.60000000  1.80000000  14.40000000
Cu  10.80000000  1.80000000  16.20000000
Cu  12.60000000  0.00000000  16.20000000
Cu  14.40000000  0.00000000  14.40000000
Cu  16.20000000  1.80000000  14.40000000
Cu  14.40000000  1.80000000  16.20000000
Cu  16.20000000  0.00000000  16.20000000
Cu  0.00000000  3.60000000  14.40000000
Cu  1.80000000  5.40000000  14.40000000
Cu  0.00000000  5.40000000  16.20000000
Cu  1.80000000  3.60000000  16.20000000
Cu  3.60000000  3.60000000  14.40000000
Cu  5.40000000  5.40000000  14.40000000
Cu  3.60000000  5.40000000  16.20000000
Cu  5.40000000  3.60000000  16.20000000
Cu  7.20000000  3.60000000  14.40000000
Cu  9.00000000  5.40000000  14.40000000
Cu  7.20000000  5.40000000  16.20000000
Cu  9.00000000  3.60000000  16.20000000
Cu  10.80000000  3.60000000  14.40000000
Cu  12.60000000  5.40000000  14.40000000
Cu  10.80000000  5.40000000  16.20000000
Cu  12.60000000  3.60000000  16.20000000
Cu  14.40000000  3.60000000  14.40000000
Cu  16.20000000  5.40000000  14.40000000
Cu  14.40000000  5.40000000  16.20000000
Cu  16.20000000  3.60000000  16.20000000
Cu  0.00000000  7.20000000  14.40000000
Cu  1.80000000  9.00000000  14.40000000
Cu  0.00000000  9.00000000  16.20000000
Cu  1.80000000  7.20000000  16.20000000
Cu  3.60000000  7.20000000  14.40000000
Cu  5.40000000  9.00000000  14.40000000
Cu  3.60000000  9.00000000  16.20000000
Cu  5.40000000  7.20000000  16.20000000
Cu  7.20000000  7.20000000  14.40000000
Cu  9.00000000  9.00000000  14.40000000
Cu  7.20000000  9.00000000  16.20000000
Cu  9.00000000  7.20000000  16.20000000
Cu  10.80000000  7.20000000  14.40000000
Cu  12.60000000  9.00000000  14.40000000
Cu  10.80000000  9.00000000  16.20000000
Cu  12.60000000  7.20000000  16.20000000
Cu  14.40000000  7.20000000  14.40000000
Cu  16.20000000  9.00000000  14.40000000
Cu  14.40000000  9.00000000  16.20000000
Cu  16.20000000  7.20000000  16.20000000
Cu  0.00000000  10.80000000  14.40000000
Cu  1.80000000  12.60000000  14.40000000
Cu  0.00000000  12.60000000  16.20000000
Cu  1.80000000  10.80000000  16.20000000
Cu  3.60000000  10.80000000  14.40000000
Cu  5.40000000  12.60000000  14.40000000
Cu  3.60000000  12.60000000  16.20000000
Cu  5.40000000  10.80000000  16.20000000
Cu  7.20000000  10.80000000  14.40000000
Cu  9.00000000  12.60000000  14.40000000
Cu  7.20000000  12.60000000  16.20000000
Cu  9.00000000  10.80000000  16.20000000
Cu  10.80000000  10.80000000  14.40000000
Cu  12.60000000  12.60000000  14.40000000
Cu  10.80000000  12.60000000  16.20000000
Cu  12.60000000  10.80000000  16.20000000
Cu  14.40000000  10.80000000  14.40000000
Cu  16.20000000  12.60000000  14.40000000
Cu  14.40000000  12.60000000  16.20000000
Cu  16.20000000  10.80000000  16.20000000
Cu  0.00000000  14.40000000  14.40000000
Cu  1.80000000  16.20000000  14.40000000
Cu  0.00000000  16.20000000  16.20000000
Cu  1.80000000  14.40000000  16.20000000
Cu  3.60000000  14.40000000  14.40000000
Cu  5.40000000  16.20000000  14.40000000
Cu  3.60000000  16.20000000  16.20000000
Cu  5.40000000  14.40000000  16.20000000
Cu  7.20000000  14.40000000  14.40000000
Cu  9.00000000  16.20000000  14.40000000
Cu  7.20000000  16.20000000  16.20000000
Cu  9.00000000  14.40000000  16.20000000
Cu  10.80000000  14.40000000  14.40000000
Cu  12.60000000  16.20000000  14.40000000
Cu  10.80000000  16.20000000  16.20000000
Cu  12.60000000  14.40000000  16.20000000
Cu  14.40000000  14.40000000  14.40000000
Cu  16.20000000  16.20000000  14.40000000
Cu  14.40000000  16.20000000  16.20000000
Cu  16.20000000  14.40000000  16.20000000
